<?xml version="1.0" encoding="UTF-8"?>

<!-- generated on 2023-08-01 23:20:21 by Eclipse SUMO jtrrouter Version 1.15.0
<configuration xmlns:xsi="http://www.w3.org/2001/XMLSchema-instance" xsi:noNamespaceSchemaLocation="http://sumo.dlr.de/xsd/jtrrouterConfiguration.xsd">

    <input>
        <net-file value="std_crossroad.net.xml"/>
        <route-files value="input_flows.flows.xml"/>
        <turn-ratio-files value="input_turns.turns.xml"/>
    </input>

    <output>
        <output-file value="Routes.rou.xml"/>
    </output>

    <processing>
        <accept-all-destinations value="t"/>
    </processing>

</configuration>
-->

<routes xmlns:xsi="http://www.w3.org/2001/XMLSchema-instance" xsi:noNamespaceSchemaLocation="http://sumo.dlr.de/xsd/routes_file.xsd">
    <vehicle id="0.0" depart="0.00">
        <route edges="WC CS"/>
    </vehicle>
    <vehicle id="1.0" depart="0.00">
        <route edges="SC CW"/>
    </vehicle>
    <vehicle id="2.0" depart="0.00">
        <route edges="EC CN"/>
    </vehicle>
    <vehicle id="3.0" depart="0.00">
        <route edges="NC CS"/>
    </vehicle>
    <vehicle id="0.1" depart="7.50">
        <route edges="WC CN"/>
    </vehicle>
    <vehicle id="0.2" depart="15.00">
        <route edges="WC CE"/>
    </vehicle>
    <vehicle id="2.1" depart="16.50">
        <route edges="EC CW"/>
    </vehicle>
    <vehicle id="1.1" depart="17.50">
        <route edges="SC CE"/>
    </vehicle>
    <vehicle id="3.1" depart="18.00">
        <route edges="NC CS"/>
    </vehicle>
    <vehicle id="0.3" depart="22.50">
        <route edges="WC CS"/>
    </vehicle>
    <vehicle id="0.4" depart="30.00">
        <route edges="WC CE"/>
    </vehicle>
    <vehicle id="2.2" depart="33.00">
        <route edges="EC CS"/>
    </vehicle>
    <vehicle id="1.2" depart="35.00">
        <route edges="SC CN"/>
    </vehicle>
    <vehicle id="3.2" depart="36.00">
        <route edges="NC CS"/>
    </vehicle>
    <vehicle id="0.5" depart="37.50">
        <route edges="WC CN"/>
    </vehicle>
    <vehicle id="0.6" depart="45.00">
        <route edges="WC CE"/>
    </vehicle>
    <vehicle id="2.3" depart="49.50">
        <route edges="EC CN"/>
    </vehicle>
    <vehicle id="0.7" depart="52.50">
        <route edges="WC CS"/>
    </vehicle>
    <vehicle id="1.3" depart="52.50">
        <route edges="SC CN"/>
    </vehicle>
    <vehicle id="3.3" depart="54.00">
        <route edges="NC CW"/>
    </vehicle>
    <vehicle id="0.8" depart="60.00">
        <route edges="WC CE"/>
    </vehicle>
    <vehicle id="2.4" depart="66.00">
        <route edges="EC CS"/>
    </vehicle>
    <vehicle id="0.9" depart="67.50">
        <route edges="WC CN"/>
    </vehicle>
    <vehicle id="1.4" depart="70.00">
        <route edges="SC CN"/>
    </vehicle>
    <vehicle id="3.4" depart="72.00">
        <route edges="NC CW"/>
    </vehicle>
    <vehicle id="0.10" depart="75.00">
        <route edges="WC CS"/>
    </vehicle>
    <vehicle id="0.11" depart="82.50">
        <route edges="WC CS"/>
    </vehicle>
    <vehicle id="2.5" depart="82.50">
        <route edges="EC CN"/>
    </vehicle>
    <vehicle id="1.5" depart="87.50">
        <route edges="SC CN"/>
    </vehicle>
    <vehicle id="0.12" depart="90.00">
        <route edges="WC CE"/>
    </vehicle>
    <vehicle id="3.5" depart="90.00">
        <route edges="NC CE"/>
    </vehicle>
    <vehicle id="0.13" depart="97.50">
        <route edges="WC CN"/>
    </vehicle>
    <vehicle id="2.6" depart="99.00">
        <route edges="EC CW"/>
    </vehicle>
    <vType id="rescue" speedFactor="1.50" vClass="emergency" guiShape="emergency">
        <param key="has.bluelight.device" value="true"/>
    </vType>
    <vehicle id="4.0" type="rescue" depart="100.00">
        <route edges="WC CE"/>
    </vehicle>
    <vehicle id="0.14" depart="105.00">
        <route edges="WC CS"/>
    </vehicle>
    <vehicle id="1.6" depart="105.00">
        <route edges="SC CE"/>
    </vehicle>
    <vehicle id="3.6" depart="108.00">
        <route edges="NC CW"/>
    </vehicle>
    <vehicle id="0.15" depart="112.50">
        <route edges="WC CN"/>
    </vehicle>
    <vehicle id="2.7" depart="115.50">
        <route edges="EC CN"/>
    </vehicle>
    <vehicle id="0.16" depart="120.00">
        <route edges="WC CE"/>
    </vehicle>
    <vehicle id="1.7" depart="122.50">
        <route edges="SC CN"/>
    </vehicle>
    <vehicle id="3.7" depart="126.00">
        <route edges="NC CW"/>
    </vehicle>
    <vehicle id="0.17" depart="127.50">
        <route edges="WC CE"/>
    </vehicle>
    <vehicle id="2.8" depart="132.00">
        <route edges="EC CN"/>
    </vehicle>
    <vehicle id="0.18" depart="135.00">
        <route edges="WC CE"/>
    </vehicle>
    <vehicle id="1.8" depart="140.00">
        <route edges="SC CN"/>
    </vehicle>
    <vehicle id="0.19" depart="142.50">
        <route edges="WC CE"/>
    </vehicle>
    <vehicle id="3.8" depart="144.00">
        <route edges="NC CW"/>
    </vehicle>
    <vehicle id="2.9" depart="148.50">
        <route edges="EC CN"/>
    </vehicle>
    <vehicle id="0.20" depart="150.00">
        <route edges="WC CN"/>
    </vehicle>
    <vehicle id="4.1" type="rescue" depart="150.00">
        <route edges="WC CS"/>
    </vehicle>
    <vehicle id="0.21" depart="157.50">
        <route edges="WC CN"/>
    </vehicle>
    <vehicle id="1.9" depart="157.50">
        <route edges="SC CN"/>
    </vehicle>
    <vehicle id="3.9" depart="162.00">
        <route edges="NC CW"/>
    </vehicle>
    <vehicle id="0.22" depart="165.00">
        <route edges="WC CS"/>
    </vehicle>
    <vehicle id="2.10" depart="165.00">
        <route edges="EC CN"/>
    </vehicle>
    <vehicle id="0.23" depart="172.50">
        <route edges="WC CN"/>
    </vehicle>
    <vehicle id="1.10" depart="175.00">
        <route edges="SC CN"/>
    </vehicle>
    <vehicle id="0.24" depart="180.00">
        <route edges="WC CE"/>
    </vehicle>
    <vehicle id="3.10" depart="180.00">
        <route edges="NC CW"/>
    </vehicle>
    <vehicle id="2.11" depart="181.50">
        <route edges="EC CN"/>
    </vehicle>
    <vehicle id="0.25" depart="187.50">
        <route edges="WC CN"/>
    </vehicle>
    <vehicle id="1.11" depart="192.50">
        <route edges="SC CE"/>
    </vehicle>
    <vehicle id="0.26" depart="195.00">
        <route edges="WC CE"/>
    </vehicle>
    <vehicle id="2.12" depart="198.00">
        <route edges="EC CN"/>
    </vehicle>
    <vehicle id="3.11" depart="198.00">
        <route edges="NC CS"/>
    </vehicle>
    <vehicle id="0.27" depart="202.50">
        <route edges="WC CS"/>
    </vehicle>
    <vehicle id="0.28" depart="210.00">
        <route edges="WC CE"/>
    </vehicle>
    <vehicle id="1.12" depart="210.00">
        <route edges="SC CE"/>
    </vehicle>
    <vehicle id="2.13" depart="214.50">
        <route edges="EC CW"/>
    </vehicle>
    <vehicle id="3.12" depart="216.00">
        <route edges="NC CS"/>
    </vehicle>
    <vehicle id="0.29" depart="217.50">
        <route edges="WC CN"/>
    </vehicle>
    <vehicle id="0.30" depart="225.00">
        <route edges="WC CE"/>
    </vehicle>
    <vehicle id="1.13" depart="227.50">
        <route edges="SC CN"/>
    </vehicle>
    <vehicle id="2.14" depart="231.00">
        <route edges="EC CN"/>
    </vehicle>
    <vehicle id="0.31" depart="232.50">
        <route edges="WC CE"/>
    </vehicle>
    <vehicle id="3.13" depart="234.00">
        <route edges="NC CE"/>
    </vehicle>
    <vehicle id="0.32" depart="240.00">
        <route edges="WC CE"/>
    </vehicle>
    <vehicle id="1.14" depart="245.00">
        <route edges="SC CW"/>
    </vehicle>
    <vehicle id="0.33" depart="247.50">
        <route edges="WC CN"/>
    </vehicle>
    <vehicle id="2.15" depart="247.50">
        <route edges="EC CN"/>
    </vehicle>
    <vehicle id="3.14" depart="252.00">
        <route edges="NC CE"/>
    </vehicle>
    <vehicle id="0.34" depart="255.00">
        <route edges="WC CN"/>
    </vehicle>
    <vehicle id="0.35" depart="262.50">
        <route edges="WC CN"/>
    </vehicle>
    <vehicle id="1.15" depart="262.50">
        <route edges="SC CN"/>
    </vehicle>
    <vehicle id="2.16" depart="264.00">
        <route edges="EC CN"/>
    </vehicle>
    <vehicle id="0.36" depart="270.00">
        <route edges="WC CN"/>
    </vehicle>
    <vehicle id="3.15" depart="270.00">
        <route edges="NC CW"/>
    </vehicle>
    <vehicle id="0.37" depart="277.50">
        <route edges="WC CN"/>
    </vehicle>
    <vehicle id="1.16" depart="280.00">
        <route edges="SC CN"/>
    </vehicle>
    <vehicle id="2.17" depart="280.50">
        <route edges="EC CN"/>
    </vehicle>
    <vehicle id="0.38" depart="285.00">
        <route edges="WC CS"/>
    </vehicle>
    <vehicle id="3.16" depart="288.00">
        <route edges="NC CE"/>
    </vehicle>
    <vehicle id="0.39" depart="292.50">
        <route edges="WC CN"/>
    </vehicle>
    <vehicle id="2.18" depart="297.00">
        <route edges="EC CN"/>
    </vehicle>
    <vehicle id="1.17" depart="297.50">
        <route edges="SC CW"/>
    </vehicle>
    <vehicle id="3.17" depart="306.00">
        <route edges="NC CW"/>
    </vehicle>
    <vehicle id="2.19" depart="313.50">
        <route edges="EC CW"/>
    </vehicle>
    <vehicle id="1.18" depart="315.00">
        <route edges="SC CN"/>
    </vehicle>
    <vehicle id="3.18" depart="324.00">
        <route edges="NC CS"/>
    </vehicle>
    <vehicle id="1.19" depart="332.50">
        <route edges="SC CW"/>
    </vehicle>
    <vehicle id="3.19" depart="342.00">
        <route edges="NC CS"/>
    </vehicle>
</routes>
